
**** 05/20/20 20:10:03 ***** PSpice 16.6.0 (October 2012) ***** ID# 0 ********

 ** Profile: "SCHEMATIC1-fz"  [ E:\PSPICE\tongdianshiyan3\lanqiu-PSpiceFiles\SCHEMATIC1\fz.sim ] 


 ****     CIRCUIT DESCRIPTION


******************************************************************************




** Creating circuit file "fz.cir" 
** WARNING: THIS AUTOMATICALLY GENERATED FILE MAY BE OVERWRITTEN BY SUBSEQUENT SIMULATIONS

*Libraries: 
* Profile Libraries :
* Local Libraries :
* From [PSPICE NETLIST] section of C:\Users\baoka\AppData\Roaming\SPB_Data\cdssetup\OrCAD_PSpice/16.6.0/PSpice.ini file:
.lib "nom.lib" 

*Analysis directives: 
.TRAN  0 10000ns 0 4ns 
.STEP LIN PARAM re 1k 5k 1k 
.OPTIONS ADVCONV
.PROBE64 V(alias(*)) I(alias(*)) W(alias(*)) D(alias(*)) NOISE(alias(*)) 
.INC "..\SCHEMATIC1.net" 



**** INCLUDING SCHEMATIC1.net ****
* source LANQIU
C_C1         0 N00224  33n  TC=0,0 
R_R1         N00224 N00374  15k TC=0,0 
R_R2         0 N00224  4.7k TC=0,0 
R_R3         0 N00366  re TC=0,0 
--------------------------$
ERROR(ORPSIM-16152): Invalid number
L_L1         N00370 N00374  0.53u  
Q_Q1         N00370 N00224 N00366 Q2N2222
C_C2         N00370 N00391  33n  TC=0,0 
C_C3         N00366 N00391  200p  TC=0,0 
C_C4         0 N00366  300p  TC=0,0 
R_R4         N00374 N00577  0.1 TC=0,0 
V_V1         N00577 0 12v
R_R5         0 N00391  1k TC=0,0 
.PARAM  re=1k

**** RESUMING fz.cir ****
.END
